RF_Spanish_representative_feeders/OpenDSS/RF4.dss
clear
new circuit.Feeder_32_Ntw_td400859
edit Vsource.Source bus1=36 basekv=0.42 pu=1 phases=3 ISC3=9000  ISC1=5000
! edit Vsource.Source bus1=source basekv=22 pu=1.0001 phases=3 ISC3=9000  ISC1=5000 ! only uncomment if you want to include the transfomer
!-- Linecodes ------------------------------------------------------------------------------------------------------
redirect linecode.txt
!-- Loadshapes ------------------------------------------------------------------------------------------------------
redirect Loadshapes.txt
! -TRFRMS-----------------------------------------------------------------------------------------------------------------
! The transformer is commented out for an LV feeder analysis. You can uncomment but uncomment the Vsource line above
! New line.mv Bus1=sourcebus.1.2.3 Bus2=6.1.2.3 phases=3 Linecode=101 Length=5 Units=m
! New Transformer.td400859 windings=2 Buses=[6 36.1.2.3.4] Conns=[DELTA WYE] kVs=[22.0 0.42] kVAs=[630.0 630.0] XHL=4.0 phases=3 sub=y 
New Reactor.Yngrnd phases=1 bus1=36.4 bus2=36.0 R=0.0 X=1E-10 
! -LINES-----------------------------------------------------------------------------------------------------------------
New Line.1210_0 Bus1=1216.1.2.3.4 Bus2=1210_1.1.2.3.4 phases=4 linecode=221 Length=42.302 Units=m
New Line.1216 Bus1=1199.1.2.3.4 Bus2=1216.1.2.3.4 phases=4 linecode=221 Length=55.989 Units=m
New Line.1207 Bus1=1206.1.2.3.4 Bus2=1207.1.2.3.4 phases=4 linecode=222 Length=27.341 Units=m
New Line.1215 Bus1=1215_1.1.2.3.4 Bus2=1215.1.2.3.4 phases=4 linecode=217 Length=62.572 Units=m
New Line.1209_0 Bus1=1208.1.2.3.4 Bus2=1209_1.1.2.3.4 phases=4 linecode=214 Length=21.05 Units=m
New Line.1210 Bus1=1210_1.1.2.3.4 Bus2=1210.1.2.3.4 phases=4 linecode=221 Length=38.011 Units=m
New Line.1199 Bus1=1195.1.2.3.4 Bus2=1199.1.2.3.4 phases=4 linecode=221 Length=46.1 Units=m
New Line.1206 Bus1=1203.1.2.3.4 Bus2=1206.1.2.3.4 phases=4 linecode=221 Length=52.876 Units=m
New Line.feeder32 Bus1=36.1.2.3.4 Bus2=36_5.1.2.3.4 phases=4 linecode=205 Length=4.712 Units=m
New Line.1194_1 Bus1=1194_1.1.2.3.4 Bus2=1194_2.1.2.3.4 phases=4 linecode=221 Length=2.806 Units=m
New Line.1194 Bus1=1194_2.1.2.3.4 Bus2=1194.1.2.3.4 phases=4 linecode=221 Length=16.976 Units=m
New Line.1213 Bus1=1197.1.2.3.4 Bus2=1213.1.2.3.4 phases=4 linecode=214 Length=5.254 Units=m
New Line.1215_0 Bus1=1198.1.2.3.4 Bus2=1215_1.1.2.3.4 phases=4 linecode=217 Length=50.558 Units=m
New Line.1209 Bus1=1209_1.1.2.3.4 Bus2=1209.1.2.3.4 phases=4 linecode=214 Length=1.09 Units=m
New Line.1194_0 Bus1=2681.1.2.3.4 Bus2=1194_1.1.2.3.4 phases=4 linecode=221 Length=1.19 Units=m
New Line.1195 Bus1=1195_1.1.2.3.4 Bus2=1195.1.2.3.4 phases=4 linecode=221 Length=55.818 Units=m
New Line.1212 Bus1=1212_1.1.2.3.4 Bus2=1212.1.2.3.4 phases=4 linecode=201 Length=13.21 Units=m
New Line.1197_0 Bus1=1196.1.2.3.4 Bus2=1197_1.1.2.3.4 phases=4 linecode=219 Length=39.52 Units=m
New Line.1198 Bus1=1196.1.2.3.4 Bus2=1198.1.2.3.4 phases=4 linecode=217 Length=48.276 Units=m
New Line.1205_0 Bus1=1203.1.2.3.4 Bus2=1205_1.1.2.3.4 phases=4 linecode=201 Length=2.269 Units=m
New Line.1204 Bus1=1204_1.1.2.3.4 Bus2=1204.1.2.3.4 phases=4 linecode=201 Length=1.46 Units=m
New Line.1196 Bus1=1195.1.2.3.4 Bus2=1196.1.2.3.4 phases=4 linecode=219 Length=43.27 Units=m
New Line.1203 Bus1=1194.1.2.3.4 Bus2=1203.1.2.3.4 phases=4 linecode=221 Length=45.692 Units=m
New Line.1195_0 Bus1=1208.1.2.3.4 Bus2=1195_1.1.2.3.4 phases=4 linecode=221 Length=59.34 Units=m
New Line.1205 Bus1=1205_1.1.2.3.4 Bus2=1205.1.2.3.4 phases=4 linecode=201 Length=2.894 Units=m
New Line.1200_0 Bus1=1194.1.2.3.4 Bus2=1200_1.1.2.3.4 phases=4 linecode=222 Length=17.673 Units=m
New Line.cktbk32 Bus1=36_5.1.2.3.4 Bus2=2681.1.2.3.4 phases=4 linecode=102 Length=0.5 Units=m
New Line.1208 Bus1=1214.1.2.3.4 Bus2=1208.1.2.3.4 phases=4 linecode=221 Length=23.608 Units=m
New Line.1200 Bus1=1200_1.1.2.3.4 Bus2=1200.1.2.3.4 phases=4 linecode=222 Length=1.209 Units=m
New Line.1214 Bus1=1206.1.2.3.4 Bus2=1214.1.2.3.4 phases=4 linecode=221 Length=72.53 Units=m
New Line.1202 Bus1=1194.1.2.3.4 Bus2=1202.1.2.3.4 phases=4 linecode=214 Length=6.505 Units=m
New Line.1211 Bus1=1216.1.2.3.4 Bus2=1211.1.2.3.4 phases=4 linecode=222 Length=19.835 Units=m
New Line.1204_0 Bus1=1203.1.2.3.4 Bus2=1204_1.1.2.3.4 phases=4 linecode=201 Length=2.166 Units=m
New Line.1201 Bus1=1194.1.2.3.4 Bus2=1201.1.2.3.4 phases=4 linecode=214 Length=13.696 Units=m
New Line.1212_0 Bus1=1216.1.2.3.4 Bus2=1212_1.1.2.3.4 phases=4 linecode=201 Length=2.485 Units=m
New Line.1197 Bus1=1197_1.1.2.3.4 Bus2=1197.1.2.3.4 phases=4 linecode=219 Length=69.159 Units=m
! --LOADS-----------------------------------------------------------------------------------------------------------
New load.load2155 Phases=3 Bus1=1206.1.2.3.4 kV=0.4 kW=1.0 PF=0.95 daily=shape_2155
New load.load1913 Phases=1 Bus1=1214.2.4 kV=0.23 kW=1.0 PF=0.95 daily=shape_1913
New load.load7901 Phases=1 Bus1=1196.3.4 kV=0.23 kW=1.0 PF=0.95 daily=shape_7901
New load.load1937 Phases=1 Bus1=1199.2.4 kV=0.23 kW=1.0 PF=0.95 daily=shape_1937
New load.load1926 Phases=1 Bus1=1201.2.4 kV=0.23 kW=1.0 PF=0.95 daily=shape_1926
New load.load1924 Phases=1 Bus1=1199.2.4 kV=0.23 kW=1.0 PF=0.95 daily=shape_1924
New load.load1927 Phases=1 Bus1=1203.3.4 kV=0.23 kW=1.0 PF=0.95 daily=shape_1927
New load.load2055 Phases=1 Bus1=1213.2.4 kV=0.23 kW=1.0 PF=0.95 daily=shape_2055
New load.load1912 Phases=1 Bus1=1215.1.4 kV=0.23 kW=1.0 PF=0.95 daily=shape_1912
New load.load1906 Phases=1 Bus1=1209.1.4 kV=0.23 kW=1.0 PF=0.95 daily=shape_1906
New load.load1914 Phases=3 Bus1=1196.1.2.3.4 kV=0.4 kW=1.0 PF=0.95 daily=shape_1914
New load.load1911 Phases=1 Bus1=1205.3.4 kV=0.23 kW=1.0 PF=0.95 daily=shape_1911
New load.load1994 Phases=1 Bus1=1198.2.4 kV=0.23 kW=1.0 PF=0.95 daily=shape_1994
New load.load1928 Phases=1 Bus1=1206.3.4 kV=0.23 kW=1.0 PF=0.95 daily=shape_1928
New load.load1989 Phases=1 Bus1=1202.1.4 kV=0.23 kW=1.0 PF=0.95 daily=shape_1989
New load.load1925 Phases=1 Bus1=1207.2.4 kV=0.23 kW=1.0 PF=0.95 daily=shape_1925
New load.load1929 Phases=1 Bus1=1200.3.4 kV=0.23 kW=1.0 PF=0.95 daily=shape_1929
New load.load1918 Phases=1 Bus1=1211.3.4 kV=0.23 kW=1.0 PF=0.95 daily=shape_1918
! --PF -----------------------------------------------------------------------------------------------------------
    set mode=Daily number=481 stepsize=60m
    Calcvoltagebases
    solve
    Plot circuit Power Max=1000 dots=n labels=n subs=y C1=black 1ph=3
    
